<?xml version="1.0" encoding="UTF-8"?>

<!-- generated on 2021-05-14 10:37:03 by Eclipse SUMO netconvert Version 1.9.1
<configuration xmlns:xsi="http://www.w3.org/2001/XMLSchema-instance" xsi:noNamespaceSchemaLocation="http://sumo.dlr.de/xsd/netconvertConfiguration.xsd">

    <input>
        <osm-files value="e_8th_Oak.osm"/>
    </input>

    <output>
        <output-file value="e_8th_Oak.net.xml"/>
    </output>

    <projection>
        <proj.utm value="true"/>
    </projection>

    <processing>
        <geometry.remove value="true"/>
        <roundabouts.guess value="true"/>
    </processing>

    <tls_building>
        <tls.discard-simple value="true"/>
        <tls.join value="true"/>
        <tls.guess-signals value="true"/>
    </tls_building>

    <ramp_guessing>
        <ramps.guess value="true"/>
    </ramp_guessing>

    <junctions>
        <junctions.join value="true"/>
    </junctions>

    <report>
        <aggregate-warnings value="5"/>
    </report>

</configuration>
-->

<net version="1.9" junctionCornerDetail="5" limitTurnSpeed="5.50" xmlns:xsi="http://www.w3.org/2001/XMLSchema-instance" xsi:noNamespaceSchemaLocation="http://sumo.dlr.de/xsd/net_file.xsd">

    <location netOffset="-607675.59,-4267202.54" convBoundary="0.00,0.00,1444.57,1499.90" origBoundary="-121.764312,38.546610,-121.747736,38.560120" projParameter="+proj=utm +zone=10 +ellps=WGS84 +datum=WGS84 +units=m +no_defs"/>

    <type id="highway.bridleway" priority="1" numLanes="1" speed="2.78" allow="pedestrian" oneway="1" width="2.00"/>
    <type id="highway.bus_guideway" priority="1" numLanes="1" speed="27.78" allow="bus" oneway="1"/>
    <type id="highway.cycleway" priority="1" numLanes="1" speed="8.33" allow="bicycle" oneway="0" width="1.00"/>
    <type id="highway.footway" priority="1" numLanes="1" speed="2.78" allow="pedestrian" oneway="1" width="2.00"/>
    <type id="highway.ford" priority="1" numLanes="1" speed="2.78" allow="army" oneway="0"/>
    <type id="highway.living_street" priority="2" numLanes="1" speed="2.78" disallow="tram rail_urban rail rail_electric rail_fast ship" oneway="0"/>
    <type id="highway.motorway" priority="14" numLanes="2" speed="39.44" allow="private emergency authority army vip passenger hov taxi bus coach delivery truck trailer motorcycle evehicle custom1 custom2" oneway="1"/>
    <type id="highway.motorway_link" priority="9" numLanes="1" speed="22.22" allow="private emergency authority army vip passenger hov taxi bus coach delivery truck trailer motorcycle evehicle custom1 custom2" oneway="1"/>
    <type id="highway.path" priority="1" numLanes="1" speed="2.78" allow="pedestrian bicycle" oneway="0" width="2.00"/>
    <type id="highway.pedestrian" priority="1" numLanes="1" speed="2.78" allow="pedestrian" oneway="1" width="2.00"/>
    <type id="highway.primary" priority="12" numLanes="2" speed="27.78" disallow="tram rail_urban rail rail_electric rail_fast ship" oneway="0"/>
    <type id="highway.primary_link" priority="7" numLanes="1" speed="22.22" disallow="tram rail_urban rail rail_electric rail_fast ship" oneway="0"/>
    <type id="highway.raceway" priority="15" numLanes="2" speed="83.33" allow="vip" oneway="0"/>
    <type id="highway.residential" priority="3" numLanes="1" speed="13.89" disallow="tram rail_urban rail rail_electric rail_fast ship" oneway="0"/>
    <type id="highway.secondary" priority="11" numLanes="1" speed="27.78" disallow="tram rail_urban rail rail_electric rail_fast ship" oneway="0"/>
    <type id="highway.secondary_link" priority="6" numLanes="1" speed="22.22" disallow="tram rail_urban rail rail_electric rail_fast ship" oneway="0"/>
    <type id="highway.service" priority="1" numLanes="1" speed="5.56" allow="pedestrian delivery bicycle" oneway="0"/>
    <type id="highway.stairs" priority="1" numLanes="1" speed="1.39" allow="pedestrian" oneway="1" width="2.00"/>
    <type id="highway.step" priority="1" numLanes="1" speed="1.39" allow="pedestrian" oneway="1" width="2.00"/>
    <type id="highway.steps" priority="1" numLanes="1" speed="1.39" allow="pedestrian" oneway="1" width="2.00"/>
    <type id="highway.tertiary" priority="10" numLanes="1" speed="22.22" disallow="tram rail_urban rail rail_electric rail_fast ship" oneway="0"/>
    <type id="highway.tertiary_link" priority="5" numLanes="1" speed="22.22" disallow="tram rail_urban rail rail_electric rail_fast ship" oneway="0"/>
    <type id="highway.track" priority="1" numLanes="1" speed="5.56" allow="pedestrian motorcycle moped bicycle" oneway="0"/>
    <type id="highway.trunk" priority="13" numLanes="2" speed="27.78" disallow="pedestrian bicycle tram rail_urban rail rail_electric rail_fast ship" oneway="0"/>
    <type id="highway.trunk_link" priority="8" numLanes="1" speed="22.22" disallow="pedestrian bicycle tram rail_urban rail rail_electric rail_fast ship" oneway="0"/>
    <type id="highway.unclassified" priority="4" numLanes="1" speed="13.89" disallow="tram rail_urban rail rail_electric rail_fast ship" oneway="0"/>
    <type id="highway.unsurfaced" priority="1" numLanes="1" speed="8.33" disallow="tram rail_urban rail rail_electric rail_fast ship" oneway="0"/>
    <type id="railway.highspeed" priority="21" numLanes="1" speed="69.44" allow="rail_fast" oneway="1"/>
    <type id="railway.light_rail" priority="19" numLanes="1" speed="27.78" allow="rail_urban" oneway="1"/>
    <type id="railway.preserved" priority="16" numLanes="1" speed="27.78" allow="rail" oneway="1"/>
    <type id="railway.rail" priority="20" numLanes="1" speed="44.44" allow="rail" oneway="1"/>
    <type id="railway.subway" priority="18" numLanes="1" speed="27.78" allow="rail_urban" oneway="1"/>
    <type id="railway.tram" priority="17" numLanes="1" speed="13.89" allow="tram" oneway="1"/>

    <edge id=":3951069160_0" function="internal">
        <lane id=":3951069160_0_0" index="0" allow="bicycle" speed="8.33" length="0.17" width="1.00" shape="923.08,392.01 923.05,392.05 923.03,392.08 923.01,392.11 923.00,392.15"/>
    </edge>
    <edge id=":3951069160_1" function="internal">
        <lane id=":3951069160_1_0" index="0" allow="bicycle" speed="8.33" length="0.51" width="1.00" shape="922.06,391.82 922.11,391.68 922.15,391.58 922.21,391.50 922.30,391.38"/>
    </edge>
    <edge id=":3951069165_0" function="internal">
        <lane id=":3951069165_0_0" index="0" allow="bicycle" speed="8.33" length="0.49" width="1.00" shape="940.46,399.75 940.44,399.90 940.41,399.99 940.37,400.08 940.30,400.21"/>
    </edge>
    <edge id=":3951069165_1" function="internal">
        <lane id=":3951069165_1_0" index="0" allow="bicycle" speed="8.33" length="0.16" width="1.00" shape="939.43,399.71 939.45,399.67 939.46,399.64 939.47,399.61 939.48,399.56"/>
    </edge>
    <edge id=":4923463844_0" function="internal">
        <lane id=":4923463844_0_0" index="0" disallow="tram rail_urban rail rail_electric rail_fast ship" speed="3.65" length="4.67" shape="1038.21,1499.91 1037.41,1501.10 1036.61,1501.50 1035.81,1501.09 1035.01,1499.89"/>
    </edge>
    <edge id=":5027298040_0" function="internal">
        <lane id=":5027298040_0_0" index="0" disallow="tram rail_urban rail rail_electric rail_fast ship" speed="3.65" length="4.67" shape="1006.03,0.04 1006.80,-1.18 1007.59,-1.60 1008.40,-1.22 1009.23,-0.04"/>
    </edge>
    <edge id=":95713442_0" function="internal">
        <lane id=":95713442_0_0" index="0" disallow="tram rail_urban rail rail_electric rail_fast ship" speed="3.65" length="4.67" shape="1444.60,458.73 1445.78,459.55 1446.16,460.36 1445.75,461.15 1444.53,461.93"/>
    </edge>
    <edge id=":95718668_0" function="internal">
        <lane id=":95718668_0_0" index="0" disallow="tram rail_urban rail rail_electric rail_fast ship" speed="6.51" length="9.04" shape="1005.09,464.26 1004.73,461.81 1003.67,460.06 1001.92,459.01 999.46,458.67"/>
    </edge>
    <edge id=":95718668_1" function="internal">
        <lane id=":95718668_1_0" index="0" disallow="tram rail_urban rail rail_electric rail_fast ship" speed="22.22" length="14.41" shape="1005.09,464.26 1005.04,449.85"/>
    </edge>
    <edge id=":95718668_2" function="internal">
        <lane id=":95718668_2_0" index="0" disallow="tram rail_urban rail rail_electric rail_fast ship" speed="8.00" length="5.93" shape="1005.09,464.26 1005.63,460.40 1006.67,458.64"/>
    </edge>
    <edge id=":95718668_3" function="internal">
        <lane id=":95718668_3_0" index="0" disallow="tram rail_urban rail rail_electric rail_fast ship" speed="3.65" length="2.34" shape="1005.09,464.26 1005.89,463.05 1006.69,462.65"/>
    </edge>
    <edge id=":95718668_16" function="internal">
        <lane id=":95718668_16_0" index="0" disallow="tram rail_urban rail rail_electric rail_fast ship" speed="8.00" length="8.26" shape="1006.67,458.64 1007.26,457.65 1010.01,455.98 1013.86,455.42"/>
    </edge>
    <edge id=":95718668_17" function="internal">
        <lane id=":95718668_17_0" index="0" disallow="tram rail_urban rail rail_electric rail_fast ship" speed="3.65" length="2.34" shape="1006.69,462.65 1007.49,463.05 1008.29,464.24"/>
    </edge>
    <edge id=":95718668_4" function="internal">
        <lane id=":95718668_4_0" index="0" disallow="tram rail_urban rail rail_electric rail_fast ship" speed="6.51" length="9.04" shape="1013.87,458.62 1011.42,458.98 1009.68,460.04 1008.63,461.79 1008.29,464.24"/>
    </edge>
    <edge id=":95718668_5" function="internal">
        <lane id=":95718668_5_0" index="0" disallow="tram rail_urban rail rail_electric rail_fast ship" speed="22.22" length="14.41" shape="1013.87,458.62 999.46,458.67"/>
    </edge>
    <edge id=":95718668_6" function="internal">
        <lane id=":95718668_6_0" index="0" disallow="tram rail_urban rail rail_electric rail_fast ship" speed="8.00" length="5.94" shape="1013.87,458.62 1010.02,458.08 1008.26,457.04"/>
    </edge>
    <edge id=":95718668_7" function="internal">
        <lane id=":95718668_7_0" index="0" disallow="tram rail_urban rail rail_electric rail_fast ship" speed="3.65" length="2.34" shape="1013.87,458.62 1012.67,457.82 1012.27,457.02"/>
    </edge>
    <edge id=":95718668_18" function="internal">
        <lane id=":95718668_18_0" index="0" disallow="tram rail_urban rail rail_electric rail_fast ship" speed="8.00" length="8.26" shape="1008.26,457.04 1007.26,456.45 1005.60,453.70 1005.04,449.85"/>
    </edge>
    <edge id=":95718668_19" function="internal">
        <lane id=":95718668_19_0" index="0" disallow="tram rail_urban rail rail_electric rail_fast ship" speed="3.65" length="2.34" shape="1012.27,457.02 1012.66,456.22 1013.86,455.42"/>
    </edge>
    <edge id=":95718668_8" function="internal">
        <lane id=":95718668_8_0" index="0" disallow="tram rail_urban rail rail_electric rail_fast ship" speed="6.50" length="9.03" shape="1008.24,449.84 1008.60,452.29 1009.65,454.04 1011.41,455.08 1013.86,455.42"/>
    </edge>
    <edge id=":95718668_9" function="internal">
        <lane id=":95718668_9_0" index="0" disallow="tram rail_urban rail rail_electric rail_fast ship" speed="22.22" length="14.40" shape="1008.24,449.84 1008.29,464.24"/>
    </edge>
    <edge id=":95718668_10" function="internal">
        <lane id=":95718668_10_0" index="0" disallow="tram rail_urban rail rail_electric rail_fast ship" speed="8.00" length="5.93" shape="1008.24,449.84 1007.70,453.69 1006.66,455.44"/>
    </edge>
    <edge id=":95718668_11" function="internal">
        <lane id=":95718668_11_0" index="0" disallow="tram rail_urban rail rail_electric rail_fast ship" speed="3.65" length="2.34" shape="1008.24,449.84 1007.44,451.04 1006.64,451.44"/>
    </edge>
    <edge id=":95718668_20" function="internal">
        <lane id=":95718668_20_0" index="0" disallow="tram rail_urban rail rail_electric rail_fast ship" speed="8.00" length="8.27" shape="1006.66,455.44 1006.06,456.45 1003.31,458.11 999.46,458.67"/>
    </edge>
    <edge id=":95718668_21" function="internal">
        <lane id=":95718668_21_0" index="0" disallow="tram rail_urban rail rail_electric rail_fast ship" speed="3.65" length="2.34" shape="1006.64,451.44 1005.84,451.05 1005.04,449.85"/>
    </edge>
    <edge id=":95718668_12" function="internal">
        <lane id=":95718668_12_0" index="0" disallow="tram rail_urban rail rail_electric rail_fast ship" speed="6.51" length="9.03" shape="999.46,455.47 1001.90,455.11 1003.65,454.06 1004.70,452.30 1005.04,449.85"/>
    </edge>
    <edge id=":95718668_13" function="internal">
        <lane id=":95718668_13_0" index="0" disallow="tram rail_urban rail rail_electric rail_fast ship" speed="22.22" length="14.40" shape="999.46,455.47 1013.86,455.42"/>
    </edge>
    <edge id=":95718668_14" function="internal">
        <lane id=":95718668_14_0" index="0" disallow="tram rail_urban rail rail_electric rail_fast ship" speed="8.01" length="5.92" shape="999.46,455.47 1003.31,456.01 1005.05,457.05"/>
    </edge>
    <edge id=":95718668_15" function="internal">
        <lane id=":95718668_15_0" index="0" disallow="tram rail_urban rail rail_electric rail_fast ship" speed="3.65" length="2.34" shape="999.46,455.47 1000.66,456.27 1001.06,457.07"/>
    </edge>
    <edge id=":95718668_22" function="internal">
        <lane id=":95718668_22_0" index="0" disallow="tram rail_urban rail rail_electric rail_fast ship" speed="8.01" length="8.27" shape="1005.05,457.05 1006.06,457.65 1007.73,460.39 1008.29,464.24"/>
    </edge>
    <edge id=":95718668_23" function="internal">
        <lane id=":95718668_23_0" index="0" disallow="tram rail_urban rail rail_electric rail_fast ship" speed="3.65" length="2.34" shape="1001.06,457.07 1000.66,457.87 999.46,458.67"/>
    </edge>
    <edge id=":95718672_0" function="internal">
        <lane id=":95718672_0_0" index="0" disallow="tram rail_urban rail rail_electric rail_fast ship" speed="3.65" length="4.67" shape="-1.08,450.81 -1.42,449.41 -1.18,448.55 -0.34,448.24 1.08,448.46"/>
    </edge>

    <edge id="-10746837#0" from="95718668" to="95713442" priority="10" type="highway.tertiary" shape="1006.66,457.05 1121.11,456.51 1224.08,456.97 1234.25,456.76 1341.39,458.21 1444.57,460.33">
        <lane id="-10746837#0_0" index="0" disallow="tram rail_urban rail rail_electric rail_fast ship" speed="22.22" length="430.78" shape="1013.86,455.42 1121.11,454.91 1224.06,455.37 1234.24,455.16 1341.42,456.61 1444.60,458.73"/>
    </edge>
    <edge id="-10746837#2" from="95718672" to="95718668" priority="10" type="highway.tertiary" shape="0.00,449.64 7.86,456.88 24.81,468.70 40.00,475.48 58.02,482.35 78.50,488.44 115.12,494.47 135.36,497.76 156.08,499.67 177.73,501.83 197.89,502.39 223.26,501.56 253.45,499.01 305.53,490.39 400.87,467.18 437.15,459.31 490.31,455.85 591.71,458.74 678.06,458.90 763.09,459.05 779.00,459.08 840.80,457.12 893.16,457.36 1006.66,457.05">
        <lane id="-10746837#2_0" index="0" disallow="tram rail_urban rail rail_electric rail_fast ship" speed="22.22" length="1014.01" shape="1.08,448.46 8.86,455.63 25.60,467.31 40.61,474.00 58.54,480.83 78.86,486.88 115.38,492.89 135.56,496.17 156.23,498.08 177.84,500.23 197.88,500.79 223.17,499.97 253.25,497.42 305.21,488.82 400.51,465.62 436.92,457.72 490.28,454.25 591.73,457.14 678.06,457.30 763.09,457.45 778.97,457.48 840.78,455.52 893.16,455.76 999.46,455.47"/>
    </edge>
    <edge id="-10747130#0" from="95718668" to="5027298040" priority="10" type="highway.tertiary" shape="1006.66,457.05 1006.23,320.94 1007.36,139.91 1008.14,18.99 1007.63,0.00">
        <lane id="-10747130#0_0" index="0" disallow="tram rail_urban rail rail_electric rail_fast ship" speed="22.22" length="449.82" shape="1005.04,449.85 1004.63,320.94 1005.76,139.90 1006.54,19.00 1006.03,0.04"/>
    </edge>
    <edge id="-10747130#1" from="4923463844" to="95718668" priority="10" type="highway.tertiary" shape="1036.61,1499.90 1036.86,1449.96 1036.91,1439.96 1037.19,1382.69 1037.57,1305.65 1037.58,1295.97 1037.59,1283.90 1037.58,1226.02 1037.37,1158.32 1037.59,1097.32 1037.48,1027.11 1035.57,954.50 1021.13,866.37 1009.95,816.07 1007.79,714.99 1006.66,457.05">
        <lane id="-10747130#1_0" index="0" disallow="tram rail_urban rail rail_electric rail_fast ship" speed="22.22" length="1038.09" shape="1035.01,1499.89 1035.26,1449.95 1035.31,1439.95 1035.59,1382.68 1035.97,1305.64 1035.98,1295.97 1035.99,1283.90 1035.98,1226.03 1035.77,1158.32 1035.99,1097.32 1035.88,1027.13 1033.98,954.65 1019.55,866.68 1008.35,816.26 1006.19,715.01 1005.09,464.26"/>
    </edge>
    <edge id="-391847698#0" from="3951069160" to="3951069165" priority="1" type="highway.cycleway" shape="922.58,391.82 921.51,394.83 921.48,398.03 922.52,401.06 924.51,403.57 927.12,405.25 930.13,406.01 933.23,405.78 936.09,404.56 938.41,402.51 939.94,399.82">
        <lane id="-391847698#0_0" index="0" allow="bicycle" speed="8.33" length="29.59" width="1.00" shape="923.00,392.15 922.01,394.92 921.98,397.94 922.97,400.81 924.85,403.20 927.32,404.78 930.17,405.51 933.11,405.28 935.82,404.13 938.01,402.19 939.43,399.71"/>
    </edge>
    <edge id="-391847698#1" from="3951069165" to="3951069160" priority="1" type="highway.cycleway" shape="939.94,399.82 940.54,396.77 940.12,393.71 938.75,390.93 936.55,388.74 933.66,387.34 930.48,386.96 927.34,387.65 924.61,389.33 922.58,391.82">
        <lane id="-391847698#1_0" index="0" allow="bicycle" speed="8.33" length="26.78" width="1.00" shape="939.48,399.56 940.03,396.76 939.64,393.85 938.34,391.23 936.26,389.15 933.52,387.82 930.50,387.47 927.53,388.12 924.94,389.71 923.08,392.01"/>
    </edge>
    <edge id="10746837#0" from="95713442" to="95718668" priority="10" type="highway.tertiary" shape="1444.57,460.33 1341.39,458.21 1234.25,456.76 1224.08,456.97 1121.11,456.51 1006.66,457.05">
        <lane id="10746837#0_0" index="0" disallow="tram rail_urban rail rail_electric rail_fast ship" speed="22.22" length="430.70" shape="1444.53,461.93 1341.36,459.81 1234.26,458.36 1224.09,458.57 1121.11,458.11 1013.87,458.62"/>
    </edge>
    <edge id="10746837#1" from="95718668" to="95718672" priority="10" type="highway.tertiary" shape="1006.66,457.05 893.16,457.36 840.80,457.12 779.00,459.08 763.09,459.05 678.06,458.90 591.71,458.74 490.31,455.85 437.15,459.31 400.87,467.18 305.53,490.39 253.45,499.01 223.26,501.56 197.89,502.39 177.73,501.83 156.08,499.67 135.36,497.76 115.12,494.47 78.50,488.44 58.02,482.35 40.00,475.48 24.81,468.70 7.86,456.88 0.00,449.64">
        <lane id="10746837#1_0" index="0" disallow="tram rail_urban rail rail_electric rail_fast ship" speed="22.22" length="1016.40" shape="999.46,458.67 893.16,458.96 840.82,458.72 779.02,460.68 763.09,460.65 678.06,460.50 591.68,460.34 490.34,457.46 437.37,460.90 401.23,468.74 305.85,491.96 253.65,500.60 223.35,503.16 197.89,503.99 177.63,503.43 155.93,501.26 135.16,499.35 114.86,496.05 78.14,490.00 57.51,483.86 39.39,476.96 24.02,470.10 6.86,458.13 -1.08,450.81"/>
    </edge>
    <edge id="10747130#0" from="5027298040" to="95718668" priority="10" type="highway.tertiary" shape="1007.63,0.00 1008.14,18.99 1007.36,139.91 1006.23,320.94 1006.66,457.05">
        <lane id="10747130#0_0" index="0" disallow="tram rail_urban rail rail_electric rail_fast ship" speed="22.22" length="449.90" shape="1009.23,-0.04 1009.74,18.97 1008.96,139.92 1007.83,320.94 1008.24,449.84"/>
    </edge>
    <edge id="10747130#1" from="95718668" to="4923463844" priority="10" type="highway.tertiary" shape="1006.66,457.05 1007.79,714.99 1009.95,816.07 1021.13,866.37 1035.57,954.50 1037.48,1027.11 1037.59,1097.32 1037.37,1158.32 1037.58,1226.02 1037.59,1283.90 1037.58,1295.97 1037.57,1305.65 1037.19,1382.69 1036.91,1439.96 1036.86,1449.96 1036.61,1499.90">
        <lane id="10747130#1_0" index="0" disallow="tram rail_urban rail rail_electric rail_fast ship" speed="22.22" length="1038.12" shape="1008.29,464.24 1009.39,714.97 1011.54,815.87 1022.70,866.07 1037.17,954.34 1039.08,1027.09 1039.19,1097.32 1038.97,1158.32 1039.18,1226.02 1039.19,1283.90 1039.18,1295.97 1039.17,1305.65 1038.79,1382.70 1038.51,1439.97 1038.46,1449.96 1038.21,1499.91"/>
    </edge>
    <edge id="391847698#0" from="3951069165" to="3951069160" priority="1" type="highway.cycleway" shape="939.94,399.82 938.41,402.51 936.09,404.56 933.23,405.78 930.13,406.01 927.12,405.25 924.51,403.57 922.52,401.06 921.48,398.03 921.51,394.83 922.58,391.82">
        <lane id="391847698#0_0" index="0" allow="bicycle" speed="8.33" length="32.58" width="1.00" shape="940.30,400.21 938.80,402.83 936.36,404.99 933.35,406.27 930.09,406.52 926.92,405.71 924.17,403.95 922.07,401.30 920.98,398.11 921.01,394.74 922.06,391.82"/>
    </edge>
    <edge id="391847698#1" from="3951069160" to="3951069165" priority="1" type="highway.cycleway" shape="922.58,391.82 924.61,389.33 927.34,387.65 930.48,386.96 933.66,387.34 936.55,388.74 938.75,390.93 940.12,393.71 940.54,396.77 939.94,399.82">
        <lane id="391847698#1_0" index="0" allow="bicycle" speed="8.33" length="29.45" width="1.00" shape="922.30,391.38 924.27,388.95 927.15,387.18 930.45,386.45 933.80,386.85 936.85,388.33 939.16,390.64 940.61,393.56 941.05,396.79 940.46,399.75"/>
    </edge>

    <tlLogic id="95718668" type="static" programID="0" offset="0">
        <phase duration="40" state="GGggrrrrGGggrrrr"/>
        <phase duration="5"  state="yyyyrrrryyyyrrrr"/>
        <phase duration="40" state="rrrrGGggrrrrGGgg"/>
        <phase duration="5"  state="rrrryyyyrrrryyyy"/>
    </tlLogic>

    <junction id="3951069160" type="priority" x="922.58" y="391.82" incLanes="-391847698#1_0 391847698#0_0" intLanes=":3951069160_0_0 :3951069160_1_0" shape="923.47,392.32 921.91,391.06 921.76,391.26 921.71,391.33 921.67,391.41 921.63,391.51 921.59,391.65">
        <request index="0" response="00" foes="00" cont="0"/>
        <request index="1" response="00" foes="00" cont="0"/>
    </junction>
    <junction id="3951069165" type="priority" x="939.94" y="399.82" incLanes="391847698#1_0 -391847698#0_0" intLanes=":3951069165_0_0 :3951069165_1_0" shape="940.96,399.85 938.99,399.46 940.73,400.46 940.85,400.25 940.88,400.17 940.90,400.09 940.93,399.99">
        <request index="0" response="00" foes="00" cont="0"/>
        <request index="1" response="00" foes="00" cont="0"/>
    </junction>
    <junction id="4923463844" type="priority" x="1036.61" y="1499.90" incLanes="10747130#1_0" intLanes=":4923463844_0_0" shape="1036.61,1499.90 1039.81,1499.91 1036.61,1499.90">
        <request index="0" response="0" foes="0" cont="0"/>
    </junction>
    <junction id="5027298040" type="priority" x="1007.63" y="0.00" incLanes="-10747130#0_0" intLanes=":5027298040_0_0" shape="1007.63,-0.00 1004.43,0.09 1007.63,0.00">
        <request index="0" response="0" foes="0" cont="0"/>
    </junction>
    <junction id="95713442" type="priority" x="1444.57" y="460.33" incLanes="-10746837#0_0" intLanes=":95713442_0_0" shape="1444.57,460.33 1444.63,457.13 1444.57,460.33">
        <request index="0" response="0" foes="0" cont="0"/>
    </junction>
    <junction id="95718668" type="traffic_light" x="1006.66" y="457.05" incLanes="-10747130#1_0 10746837#0_0 10747130#0_0 -10746837#2_0" intLanes=":95718668_0_0 :95718668_1_0 :95718668_16_0 :95718668_17_0 :95718668_4_0 :95718668_5_0 :95718668_18_0 :95718668_19_0 :95718668_8_0 :95718668_9_0 :95718668_20_0 :95718668_21_0 :95718668_12_0 :95718668_13_0 :95718668_22_0 :95718668_23_0" shape="1003.49,464.26 1009.89,464.23 1010.33,462.01 1010.88,461.23 1011.66,460.67 1012.66,460.33 1013.88,460.22 1013.85,453.82 1011.63,453.38 1010.85,452.83 1010.29,452.05 1009.95,451.06 1009.84,449.83 1003.44,449.85 1003.00,452.08 1002.45,452.86 1001.67,453.42 1000.67,453.76 999.45,453.87 999.47,460.27 1001.70,460.71 1002.48,461.26 1003.04,462.04 1003.38,463.04">
        <request index="0"  response="0000000000000000" foes="1000010000100000" cont="0"/>
        <request index="1"  response="0100000001000000" foes="0111110001100000" cont="0"/>
        <request index="2"  response="0100001101000000" foes="0110001111100000" cont="1"/>
        <request index="3"  response="0100001000010000" foes="0100001000010000" cont="1"/>
        <request index="4"  response="0000001000000000" foes="0100001000001000" cont="0"/>
        <request index="5"  response="0000011000000111" foes="1100011000000111" cont="0"/>
        <request index="6"  response="0011011000000110" foes="0011111000000110" cont="1"/>
        <request index="7"  response="0010000100000100" foes="0010000100000100" cont="1"/>
        <request index="8"  response="0000000000000000" foes="0010000010000100" cont="0"/>
        <request index="9"  response="0100000001000000" foes="0110000001111100" cont="0"/>
        <request index="10" response="0100000001000011" foes="1110000001100011" cont="1"/>
        <request index="11" response="0001000001000010" foes="0001000001000010" cont="1"/>
        <request index="12" response="0000000000000010" foes="0000100001000010" cont="0"/>
        <request index="13" response="0000011100000110" foes="0000011111000110" cont="0"/>
        <request index="14" response="0000011000110110" foes="0000011000111110" cont="1"/>
        <request index="15" response="0000010000100001" foes="0000010000100001" cont="1"/>
    </junction>
    <junction id="95718672" type="priority" x="0.00" y="449.64" incLanes="10746837#1_0" intLanes=":95718672_0_0" shape="-0.00,449.64 -2.17,451.99 -0.00,449.64">
        <request index="0" response="0" foes="0" cont="0"/>
    </junction>

    <junction id=":95718668_16_0" type="internal" x="1006.67" y="458.64" incLanes=":95718668_2_0 10747130#0_0" intLanes=":95718668_5_0 :95718668_6_0 :95718668_7_0 :95718668_8_0 :95718668_9_0 :95718668_13_0 :95718668_14_0"/>
    <junction id=":95718668_17_0" type="internal" x="1006.69" y="462.65" incLanes=":95718668_3_0 -10746837#2_0 10746837#0_0 10747130#0_0" intLanes=":95718668_4_0 :95718668_9_0 :95718668_14_0"/>
    <junction id=":95718668_18_0" type="internal" x="1008.26" y="457.04" incLanes=":95718668_6_0 -10746837#2_0" intLanes=":95718668_1_0 :95718668_2_0 :95718668_9_0 :95718668_10_0 :95718668_11_0 :95718668_12_0 :95718668_13_0"/>
    <junction id=":95718668_19_0" type="internal" x="1012.27" y="457.02" incLanes=":95718668_7_0 -10746837#2_0 -10747130#1_0 10747130#0_0" intLanes=":95718668_2_0 :95718668_8_0 :95718668_13_0"/>
    <junction id=":95718668_20_0" type="internal" x="1006.66" y="455.44" incLanes=":95718668_10_0 -10747130#1_0" intLanes=":95718668_0_0 :95718668_1_0 :95718668_5_0 :95718668_6_0 :95718668_13_0 :95718668_14_0 :95718668_15_0"/>
    <junction id=":95718668_21_0" type="internal" x="1006.64" y="451.44" incLanes=":95718668_11_0 -10746837#2_0 -10747130#1_0 10746837#0_0" intLanes=":95718668_1_0 :95718668_6_0 :95718668_12_0"/>
    <junction id=":95718668_22_0" type="internal" x="1005.05" y="457.05" incLanes=":95718668_14_0 10746837#0_0" intLanes=":95718668_1_0 :95718668_2_0 :95718668_3_0 :95718668_4_0 :95718668_5_0 :95718668_9_0 :95718668_10_0"/>
    <junction id=":95718668_23_0" type="internal" x="1001.06" y="457.07" incLanes=":95718668_15_0 -10747130#1_0 10746837#0_0 10747130#0_0" intLanes=":95718668_0_0 :95718668_5_0 :95718668_10_0"/>

    <connection from="-10746837#0" to="10746837#0" fromLane="0" toLane="0" via=":95713442_0_0" dir="t" state="M"/>
    <connection from="-10746837#2" to="-10747130#0" fromLane="0" toLane="0" via=":95718668_12_0" tl="95718668" linkIndex="12" dir="r" state="o"/>
    <connection from="-10746837#2" to="-10746837#0" fromLane="0" toLane="0" via=":95718668_13_0" tl="95718668" linkIndex="13" dir="s" state="o"/>
    <connection from="-10746837#2" to="10747130#1" fromLane="0" toLane="0" via=":95718668_14_0" tl="95718668" linkIndex="14" dir="l" state="o"/>
    <connection from="-10746837#2" to="10746837#1" fromLane="0" toLane="0" via=":95718668_15_0" tl="95718668" linkIndex="15" dir="t" state="o"/>
    <connection from="-10747130#0" to="10747130#0" fromLane="0" toLane="0" via=":5027298040_0_0" dir="t" state="M"/>
    <connection from="-10747130#1" to="10746837#1" fromLane="0" toLane="0" via=":95718668_0_0" tl="95718668" linkIndex="0" dir="r" state="O"/>
    <connection from="-10747130#1" to="-10747130#0" fromLane="0" toLane="0" via=":95718668_1_0" tl="95718668" linkIndex="1" dir="s" state="O"/>
    <connection from="-10747130#1" to="-10746837#0" fromLane="0" toLane="0" via=":95718668_2_0" tl="95718668" linkIndex="2" dir="l" state="o"/>
    <connection from="-10747130#1" to="10747130#1" fromLane="0" toLane="0" via=":95718668_3_0" tl="95718668" linkIndex="3" dir="t" state="o"/>
    <connection from="-391847698#0" to="-391847698#1" fromLane="0" toLane="0" via=":3951069165_1_0" dir="s" state="M"/>
    <connection from="-391847698#1" to="-391847698#0" fromLane="0" toLane="0" via=":3951069160_0_0" dir="s" state="M"/>
    <connection from="10746837#0" to="10747130#1" fromLane="0" toLane="0" via=":95718668_4_0" tl="95718668" linkIndex="4" dir="r" state="o"/>
    <connection from="10746837#0" to="10746837#1" fromLane="0" toLane="0" via=":95718668_5_0" tl="95718668" linkIndex="5" dir="s" state="o"/>
    <connection from="10746837#0" to="-10747130#0" fromLane="0" toLane="0" via=":95718668_6_0" tl="95718668" linkIndex="6" dir="l" state="o"/>
    <connection from="10746837#0" to="-10746837#0" fromLane="0" toLane="0" via=":95718668_7_0" tl="95718668" linkIndex="7" dir="t" state="o"/>
    <connection from="10746837#1" to="-10746837#2" fromLane="0" toLane="0" via=":95718672_0_0" dir="t" state="M"/>
    <connection from="10747130#0" to="-10746837#0" fromLane="0" toLane="0" via=":95718668_8_0" tl="95718668" linkIndex="8" dir="r" state="O"/>
    <connection from="10747130#0" to="10747130#1" fromLane="0" toLane="0" via=":95718668_9_0" tl="95718668" linkIndex="9" dir="s" state="O"/>
    <connection from="10747130#0" to="10746837#1" fromLane="0" toLane="0" via=":95718668_10_0" tl="95718668" linkIndex="10" dir="l" state="o"/>
    <connection from="10747130#0" to="-10747130#0" fromLane="0" toLane="0" via=":95718668_11_0" tl="95718668" linkIndex="11" dir="t" state="o"/>